%chk=MOL.chk
%nprocshared=32
%mem=64GB
#p b3lyp/6-31g(d) em=gd3bj

MOL

  2  1
C     62.49428928   36.22247904   67.72914275
H     62.79035223   37.17108027   68.19231265
C     62.96370549   36.22323210   66.26190980
H     62.64530499   35.29431615   65.77756082
H     62.49680431   37.05596460   65.73269234
C     64.48554721   36.35509621   66.18058869
H     64.95413695   35.54868033   66.75885599
H     64.79933344   37.31013619   66.61187356
C     64.95809902   36.29547403   64.72652592
H     64.59289246   35.38782734   64.24212193
H     64.58010187   37.15827364   64.17059011
N     66.41531510   36.32058228   64.68148237
H     66.85102705   37.16658273   65.01909216
C     67.18640099   35.52445792   63.95122939
N     66.72500549   34.41711759   63.35758679
H     67.37462686   33.97385927   62.72095484
H     65.77118363   34.40126832   63.05283514
N     68.49121960   35.76009354   63.93962109
H     69.06862949   35.27863610   63.26999341
H     68.82056400   36.65221322   64.25401795
O     60.44481884   34.98854883   67.97201323
C     69.67443999   27.29194471   61.58715042
H     69.92245867   26.81414147   60.63031578
C     70.07653601   28.77121811   61.52865135
H     71.16111995   28.83039944   61.40096197
H     69.82620599   29.25751556   62.47968670
C     69.36537062   29.47963737   60.37142179
H     68.29050157   29.27634391   60.44633634
H     69.71312005   29.06607407   59.41953374
C     69.57892116   30.99671836   60.37971320
H     68.85891419   31.46626032   59.70389789
H     69.39332422   31.39081721   61.38428681
C     70.98914796   31.38314163   59.93331348
H     71.74849358   30.73794707   60.38404085
H     71.08553181   31.32768272   58.84643773
N     71.29737269   32.76337879   60.36524240
H     71.44894398   32.74618449   61.50968172
H     70.56440827   33.41057497   60.11408395
H     72.15933129   33.07582985   59.95042171
O     71.11187957   27.17375406   63.53749271
C     72.58232976   26.77281310   67.47429537
H     73.33443337   26.79669427   68.28165889
C     73.29557964   27.04230054   66.13355638
H     74.18855910   26.41310826   66.10185304
H     72.64362671   26.72010839   65.31620896
C     73.71550193   28.50239616   65.92212890
H     74.54725594   28.51123171   65.21314948
H     74.08785620   28.92122374   66.86405954
C     72.58076551   29.38587607   65.36741950
H     71.76530675   28.77125798   64.97544394
H     72.16659686   30.03403968   66.14602053
N     73.05337558   30.26421864   64.30324462
H     72.93654388   31.26838332   64.42143950
C     73.44866669   29.86768799   63.11628061
N     73.56382429   28.57201139   62.78382880
H     72.93944717   27.90059230   63.21869090
H     73.75985262   28.38837852   61.82069083
N     73.89356024   30.78307278   62.24347045
H     74.05879166   30.50082784   61.29985405
H     73.60024519   31.74105233   62.35354283
O     71.84370886   28.84019042   68.44414426
C     74.78287557   28.50457865   71.10063569
H     75.35864703   28.01653375   71.89819178
C     75.46873562   28.27181140   69.74338611
H     75.16928339   27.29352919   69.36194628
H     75.11662634   29.02754862   69.03219494
C     76.99788809   28.31528013   69.85255732
H     77.31558976   29.12801201   70.51505773
H     77.34876799   27.37703743   70.28796096
C     77.66813696   28.50394516   68.47878676
H     77.00137744   28.18171022   67.67551763
H     78.57499246   27.89941094   68.41622616
N     78.00907418   29.89873986   68.23630849
H     77.43425103   30.40339420   67.56813771
C     79.23238686   30.39928794   68.43301725
N     79.47422859   31.68549868   68.07688948
H     78.88489160   32.04565799   67.33690437
H     80.44111126   31.91555359   67.95316730
N     80.15976274   29.76736822   69.19295831
H     81.09786479   30.10005850   69.07105118
H     80.11491385   28.76534351   69.22095071
C     74.74133104   29.99784097   71.40985480
O     75.51879690   30.79533631   70.89730791
N     73.80276418   30.35755868   72.30256330
H     73.14964029   29.66095820   72.63544706
C     73.54912148   31.75402053   72.60000852
H     74.38993986   32.32322485   72.18896918
C     72.24901703   32.23807292   71.93315656
H     71.38200730   31.85640382   72.47890116
H     72.22590577   33.32843756   71.98607701
C     72.20119591   31.76975955   70.47664073
H     71.97296750   30.69811146   70.45037163
H     73.18663748   31.91065573   70.02003406
C     71.16964332   32.52819232   69.64179590
H     70.19202923   32.52968079   70.13313756
H     71.48247422   33.56907460   69.51645105
C     71.06550523   31.85680908   68.27708993
H     72.05615003   31.75472377   67.82269959
H     70.61150432   30.86552308   68.35902795
N     70.23816253   32.65847143   67.36125730
H     69.28641615   32.74056503   67.69734496
H     70.25174395   32.23607155   66.40040833
H     70.60981541   33.60198261   67.27683510
C     73.50054288   31.91906413   74.11702634
O     73.18115519   30.98246668   74.84890451
N     73.80372766   33.13107497   74.61784075
C     74.28138646   34.31073746   73.89756692
H     73.43214792   34.84894110   73.46843122
H     74.96686878   34.02651909   73.09566272
C     73.85205459   33.31364061   76.07280686
H     74.60428286   32.64078431   76.50645875
C     74.24011898   34.78380128   76.25833444
H     74.85679129   34.92676011   77.14492115
H     73.34168818   35.39909926   76.35160371
C     74.98209826   35.13902884   74.97099688
H     74.92737388   36.20351732   74.75051802
H     76.03395686   34.84941674   75.04612432
C     72.51010161   33.01526419   76.73732425
O     72.44883514   32.51936759   77.85358638
N     71.43560237   33.38590839   76.02455348
H     71.56017369   33.83411457   75.13439364
C     70.08521071   33.32119878   76.57894353
H     70.16505243   33.36589503   77.67586422
C     69.28151323   34.54370779   76.07477166
H     69.29937464   34.52823256   74.97663499
C     67.82987313   34.45017391   76.55113217
H     67.33607475   33.58195115   76.11387891
H     67.78884935   34.36356956   77.63832054
H     67.28056121   35.34171302   76.25337629
C     69.94721751   35.84442813   76.55773415
H     71.03109292   35.75775623   76.42746477
H     69.75412560   35.98143957   77.62744920
C     69.46802403   37.06743097   75.77922142
H     69.65749511   36.93588464   74.71379652
H     68.40047578   37.24053958   75.91886880
H     70.00429809   37.95596484   76.11177614
O     68.58276487   31.49018956   76.98643129
C     68.49796719   38.70920237   71.51822458
H     69.23994561   39.00295054   70.77006675
C     67.09071391   38.97788968   70.94923102
H     66.33682714   38.68981397   71.69080068
H     66.98132493   40.04341063   70.74216863
C     66.88044923   38.18029210   69.65522648
H     67.50372554   38.59228040   68.86227116
H     67.16951818   37.13851573   69.83518986
C     65.41974199   38.22866888   69.27951655
O     64.57809697   37.52028734   69.81795350
N     65.10159572   39.10988251   68.30688466
H     64.14050287   39.32429010   68.12026802
H     65.76904431   39.76327968   67.96196443
O     68.36905406   39.09336467   73.88515029
C     72.65889910   44.90420336   72.42263843
H     73.41502794   45.52641436   72.92087388
C     72.50825910   43.57194060   73.19778646
H     73.38883709   42.95349061   72.99827743
H     71.62895187   43.04873515   72.81336902
C     72.36467871   43.82340506   74.66617180
C     71.20874941   44.11968134   75.33575568
H     70.19841006   44.18196305   74.96788106
N     71.48487738   44.33796472   76.66200360
H     70.80052009   44.59758539   77.34695616
C     72.83159110   44.20187413   76.87237911
C     73.42656468   43.87531964   75.62643012
C     74.80980279   43.67379034   75.56142642
H     75.28846070   43.42166867   74.62146173
C     75.55175456   43.80352242   76.71953524
H     76.62534545   43.65210742   76.69021645
C     73.58193803   44.33304843   78.03953830
H     73.11456482   44.58526071   78.98313408
C     74.94658476   44.12971118   77.94269921
H     75.56511365   44.22340985   78.82818699
C     73.17691889   44.59884661   71.02297533
O     74.19991370   43.94722793   70.84990647
N     72.45297772   45.12051025   70.00879946
H     71.54416841   45.48820719   70.24488747
C     72.62159381   44.61798401   68.65219501
H     73.61488672   44.15196348   68.58137133
C     71.54744746   43.55167726   68.36071019
H     71.68414427   43.20604898   67.33273921
H     70.55551050   44.00308739   68.43671670
C     71.64456269   42.37121595   69.33020848
H     71.42241068   42.71148983   70.34501940
H     72.65845151   41.95912439   69.32388858
C     70.64423420   41.26410341   68.98769625
H     70.69532011   40.47600621   69.74352345
H     69.62596171   41.65479198   68.96772082
N     70.95836871   40.64653381   67.70593980
H     71.66354859   39.92009132   67.71641678
C     70.33824293   40.86055578   66.56014489
N     69.40486473   41.80625535   66.40809389
H     68.84504632   41.77667103   65.57735845
H     68.95541691   42.19464539   67.21662060
N     70.73907668   40.18111863   65.48706989
H     71.33984417   39.38201149   65.62009014
H     70.19110024   40.21258406   64.65087285
O     73.18952170   45.64948009   66.56767460
C     73.79909590   36.16366788   66.98839851
H     74.64287443   36.83611165   67.21929635
O     73.31056647   35.57468214   68.17431572
H     72.92341652   36.27085477   68.71354731
C     72.71554271   36.99142065   66.25637394
H     73.16325251   37.41825213   65.35018851
O     72.29524586   38.08436902   67.05152364
H     71.62975146   37.78202619   67.69345669
C     71.50595799   36.13456756   65.83467740
H     70.82162017   36.76494263   65.25222723
O     70.82085339   35.63508603   66.96518812
P     69.38796574   36.09815969   67.66534604
O     69.86840216   37.31890832   68.65478354
H     70.51062279   37.24183009   69.35671648
O     68.94978368   34.91306486   68.45543899
O     68.48206188   36.72101671   66.66216950
C     71.96925823   34.95590206   64.94528668
H     72.37171917   35.37812077   64.01131626
O     70.84530639   34.16904083   64.66473730
P     70.50409950   32.73275918   63.82554333
O     69.18284908   33.02185845   63.16074572
O     71.65769212   32.54643546   62.79973322
O     70.48688412   31.65399167   64.89623466
C     73.09170536   34.14186610   65.63255690
H     72.69713183   33.65474960   66.53766196
O     73.56812023   33.12729037   64.77432689
H     73.63393088   33.47161343   63.87737978
C     74.26950576   35.06644654   66.02078042
H     74.64685779   35.55204250   65.10973669
P     75.55107531   33.18439632   67.68334336
O     74.30270343   32.43499437   68.00901278
O     76.77418598   32.41612547   67.29329538
O     75.34490134   34.31667364   66.53457165
O     75.95192642   34.22314353   68.92404307
C     76.05944705   33.96852765   70.29948437
H     76.11232396   34.93090695   70.82253416
H     75.18629499   33.41408900   70.66994680
C     77.33082246   33.15332641   70.57674686
H     77.34630704   32.25722994   69.93771058
O     77.31462807   32.76481411   71.95593111
C     78.12373246   31.74351387   72.30401014
O     78.76682285   31.09542530   71.49263374
C     78.09604467   31.46006066   73.78507290
H     78.34972859   32.37268243   74.32986725
H     78.84518637   30.69684237   74.00435052
C     78.59032435   33.98655176   70.28926241
H     79.49369468   33.37062172   70.36659289
H     78.52352978   34.41902705   69.28822941
O     78.65045981   35.07937402   71.21247953
C     79.21245968   34.86487594   72.41428579
O     79.83101268   33.85273858   72.70127218
C     78.98607276   36.01152816   73.36634274
H     78.26317466   35.65782400   74.10756678
H     78.53672916   36.85292120   72.83891006
C     76.69741546   30.98402769   74.19522909
H     75.99345525   31.80158195   74.02377986
H     76.39903509   30.13969296   73.56438268
C     76.63145576   30.56334696   75.66890441
H     76.98360734   31.38587579   76.29979073
H     75.58155447   30.36801074   75.91922077
C     77.44246052   29.32433830   75.92171038
H     77.07080131   28.41644220   75.45167429
C     78.56067715   29.30602900   76.63495615
H     78.93366482   30.21013640   77.10719635
C     79.35574083   28.05806632   76.91668872
H     80.41946991   28.26246009   76.76172174
H     79.05339701   27.25257146   76.24027996
C     79.12859189   27.64649296   78.34999571
H     79.56435499   28.29989156   79.10094964
C     78.41257719   26.58605040   78.69463334
H     77.97228636   25.94570098   77.93443218
C     78.11162331   26.19084905   80.11808686
H     78.75041814   26.75184325   80.80568607
H     78.32268382   25.12472499   80.24649791
C     76.66384110   26.48557382   80.42802044
H     76.48638502   27.46429185   80.86579648
C     75.62941654   25.69024111   80.18542477
H     74.62756519   26.03150931   80.43363499
C     75.68206052   24.32468882   79.54940243
H     75.00814395   23.64794272   80.08380757
H     76.69443758   23.91283245   79.60573597
C     75.27106475   24.41701766   78.10148531
H     75.93141743   25.00800336   77.47109733
C     74.17906385   23.85595576   77.60024075
H     73.52075991   23.26182247   78.22908044
C     73.78929050   23.94179861   76.15106334
H     72.75982180   24.30628969   76.07550728
H     74.43830369   24.65131794   75.62614198
C     73.90245649   22.56121021   75.48238448
H     74.93294879   22.21189792   75.60259701
H     73.25626780   21.84771652   76.00420087
C     73.55893297   22.58566597   73.98295261
H     74.21350313   21.87536822   73.46845975
H     73.77249888   23.57664450   73.56836580
C     72.11199698   22.19357509   73.65792392
H     72.02415799   22.10749355   72.57001933
H     71.90075623   21.20607959   74.08191700
C     71.06696628   23.19165586   74.15580840
H     71.30085188   24.19877773   73.80713249
H     70.08381733   22.91383941   73.77477098
H     71.01933639   23.19822989   75.24522864
C     80.30372561   36.40943443   74.05205335
H     80.99242340   35.55837405   74.02448350
H     80.76676873   37.21875432   73.48124045
C     80.12485451   36.87397833   75.50085089
H     79.40988728   37.70141070   75.53253548
H     81.08893974   37.25826724   75.84883671
C     79.65420427   35.77870106   76.46847949
H     78.60982709   35.52078248   76.26389259
H     79.69011408   36.19682064   77.47971812
C     80.52192997   34.51301447   76.40587801
H     80.19957539   33.88537146   75.56601377
H     81.56447650   34.79695339   76.22572981
C     80.48472459   33.69577290   77.70155657
H     80.89886079   34.29706554   78.51794827
H     81.13567437   32.82334781   77.57549975
C     79.08300473   33.21892654   78.09719061
H     78.45865720   34.07692227   78.36628565
H     78.60683494   32.71488638   77.24756927
C     79.17165209   32.25493038   79.28465983
H     79.73188006   31.36282525   78.98224391
H     79.73258153   32.73195163   80.09559989
C     77.79462380   31.83773328   79.81008451
H     77.28862728   32.71456830   80.22749076
H     77.17954941   31.46017850   78.98446346
C     77.94212008   30.74964087   80.87953042
H     78.33299220   29.84229601   80.40546504
H     78.67954029   31.06930170   81.62382879
C     76.62823983   30.40736861   81.59131806
H     76.76834890   29.46550669   82.13315333
H     75.83290265   30.24861324   80.85389352
C     76.20561258   31.48815659   82.59260397
H     77.04802290   31.71097049   83.25669220
H     75.94929627   32.41311335   82.06492078
C     75.01170993   31.03205715   83.43775573
H     74.14929030   30.84131444   82.78846830
H     75.26767233   30.08957700   83.93326238
C     74.64536682   32.08841850   84.48612017
H     74.39830385   33.02538868   83.97503249
H     75.51556992   32.28662022   85.12012283
C     73.44751948   31.68297458   85.35512409
H     72.60552174   31.42359098   84.70360447
H     73.14440259   32.54974720   85.95209216
C     73.71611804   30.50403145   86.30013101
H     72.76863622   30.22579094   86.77346001
H     74.06255218   29.63511377   85.73096848
C     74.73255414   30.83183135   87.39427045
H     74.82241174   29.98919541   88.07994598
H     74.41488907   31.70717327   87.96227239
H     75.71688068   31.03305255   86.97058256
N     68.21961313   27.17151370   61.75987448
H     67.91550481   26.28092645   61.39530317
H     67.97884349   27.20273782   62.74445750
C     70.39937386   26.56448237   62.71127911
C     70.20720477   25.07177715   62.77931392
H     70.65173286   24.60412738   61.90023141
H     70.68299586   24.67375924   63.67400446
H     69.14674690   24.82065520   62.78567932
C     71.54525943   27.83474120   67.77337540
C     70.16956360   27.62726270   67.19558207
H     69.67417045   26.80624299   67.71556774
H     69.57281350   28.53256079   67.30083037
H     70.24128345   27.34707286   66.14347205
N     71.94189751   25.45672456   67.38964932
H     72.59621850   24.80694626   66.97738813
H     71.75479939   25.11894426   68.32484465
C     69.40827041   32.00546825   76.21168840
C     69.75529751   31.39540215   74.87943449
H     69.71631016   32.15055467   74.09500006
H     70.77016383   30.99061720   74.90063175
H     69.05815103   30.59199856   74.64856554
N     63.12761819   35.12493362   68.44859770
H     63.04456507   35.31310807   69.44274224
H     62.60021573   34.27766375   68.25422700
N     73.42590197   27.97863662   71.14973486
H     72.94301822   28.21381483   70.28366234
H     73.47086764   26.97218290   71.19384922
N     71.40912500   45.64664237   72.36474793
H     70.65480389   45.01377377   72.13726074
H     71.19930106   46.02711632   73.27922094
N     68.65553622   37.28939372   71.80644133
H     69.64121318   37.07828641   71.74696823
H     68.37405417   37.12934788   72.77313973
C     68.66069028   39.54393586   72.78518733
C     69.16846359   40.94679347   72.59742515
H     68.64155863   41.44128865   71.78474782
H     69.05843791   41.52050269   73.51577385
H     70.22304569   40.90701732   72.32587021
C     72.53359702   45.72996843   67.61662312
C     71.58291095   46.86430550   67.89409339
H     71.52308812   47.51615151   67.02454235
H     70.59200822   46.47570451   68.12422679
H     71.92122146   47.44182565   68.75576229
C     60.97551533   36.07868300   67.76883479
C     60.17393482   37.33138032   67.53096367
H     60.50438767   37.82593016   66.62022418
H     59.11544563   37.09099380   67.45329256
H     60.32712681   38.02665907   68.35566589
 
