%chk=MOL.chk
%nprocshared=32
%mem=64GB
#P B3LYP/6-31G* em=GD3BJ

MOL

  -2  1
C    104.79967272   64.00887067   60.72968849
H    105.78964452   63.95746018   60.25598849
C    104.24956368   65.42840485   60.51232173
H    103.29125610   65.50416210   61.03358343
H    104.96964698   66.12367146   60.94747095
C    104.08564697   65.74569039   59.02363466
H    104.93117539   65.30718614   58.48624316
H    103.16535789   65.30347403   58.63608890
C    104.10705649   67.23946452   58.69417222
H    104.04487102   67.34032679   57.60987431
H    105.07617727   67.65345208   58.98525545
C    102.99535688   68.07619768   59.32140314
H    102.93908764   69.01957759   58.77895292
H    102.03794630   67.55727556   59.24757163
N    103.27715934   68.38830845   60.74624360
H    104.33097511   68.56506431   60.87301209
H    103.05323550   67.59426440   61.35433607
H    102.76966163   69.22165826   61.05657078
C    105.07126991   63.74222619   62.20605123
O    105.40883011   64.61611653   63.00860978
N    104.90297048   62.47214865   62.56655717
H    104.62529891   61.83719101   61.82529309
C    105.23721723   61.97123809   63.87348357
H    105.26866440   62.83984104   64.54219811
C    104.15479972   60.99147673   64.38881059
H    104.45251975   60.66235279   65.38363276
H    103.21429331   61.53607257   64.45117473
C    103.98862199   59.80392562   63.48529101
C    103.07187275   59.83372319   62.43845409
H    102.46044248   60.70883679   62.28322785
C    102.92014976   58.75109236   61.59632643
H    102.21058126   58.76708178   60.78444528
C    103.69129347   57.60652076   61.78669779
O    103.50441888   56.55843472   60.94033416
H    104.09242386   55.82712310   61.17430845
C    104.75495627   58.65865088   63.66594314
H    105.47425892   58.61494738   64.46897452
C    104.61149976   57.56786886   62.82942481
H    105.21355942   56.68348642   62.98237527
O    107.14959818   61.17456108   65.01779831
C    109.13429365   61.74929610   68.26165884
H    109.01948808   60.65915870   68.31482279
C    110.47710533   62.23642903   68.87860476
H    111.23277249   61.57089179   68.45202311
H    110.66994441   63.25046506   68.52240003
C    110.54209868   62.17364263   70.34138367
C    110.83039582   63.25941033   71.20272298
H    110.93545124   64.29165670   70.92416891
N    110.97842213   62.82594741   72.44545092
H    111.17249629   63.40761505   73.25046694
C    110.84711309   61.45034489   72.49080329
C    110.57585798   61.00007818   71.17764998
C    110.43488595   59.63872651   70.93442071
H    110.23639231   59.26168422   69.94479615
C    110.58424075   58.76265517   72.00032359
H    110.49453669   57.70161819   71.82822321
C    110.98838065   60.57873814   73.55297134
H    111.20542954   60.92668429   74.54935436
C    110.85520214   59.22030719   73.28393233
H    110.97039530   58.51054158   74.08715721
O    108.32459319   62.55882890   70.39426105
C    104.49027913   65.19040931   69.88149689
H    105.55058734   65.43299707   70.03335196
C    104.05801520   65.68976536   68.49071864
H    104.22849076   66.76554684   68.45242457
H    102.98800339   65.52353345   68.35833791
C    104.81968969   64.97990625   67.36682777
H    105.88230174   64.94124838   67.60231546
H    104.45210345   63.95996342   67.27388620
C    104.64218013   65.67713213   66.02165761
H    103.58689184   65.89651013   65.83731395
H    105.00729007   65.04065333   65.21209345
N    105.40170973   66.92004237   65.99517537
H    105.70138633   67.29227509   66.88572225
C    105.56768410   67.68587266   64.91945656
N    105.05401319   67.31403244   63.74095158
H    105.37576314   67.86233005   62.93905723
H    105.00818586   66.31596985   63.53448069
N    106.10409171   68.89868650   65.04390203
H    106.45669790   69.36637767   64.19529119
H    106.54496898   69.17310296   65.90519646
O    104.10048160   67.13616194   71.21379992
C    109.73637271   64.68476841   62.42978876
H    109.70266879   63.79889538   63.09157953
O    110.74884823   64.44222448   61.48599455
H    111.51366985   65.02982302   61.65612202
C    108.36091344   64.82371997   61.74564551
H    107.58800618   64.89634437   62.52115438
O    108.04055384   63.68349457   60.99993469
H    108.59536680   63.67027292   60.20170419
C    108.30599025   66.11661970   60.92868657
H    107.33188016   66.18749515   60.42113311
O    109.31288296   66.17235296   59.95085695
P    108.98301755   65.53271808   58.47894372
O    109.59022800   64.00582337   58.65122431
H    110.54771608   64.04107801   58.66269920
O    109.82372723   66.25379389   57.48080124
O    107.51406748   65.37888595   58.29174324
C    108.47619419   67.34084393   61.83334558
H    107.66765716   67.35610144   62.58222523
O    108.42680903   68.49940037   61.06889308
P    107.05875075   69.45714039   61.36295879
O    107.08051828   70.48809641   60.26871770
O    105.86309192   68.48089851   61.29331838
O    107.19572145   69.98271464   62.78489442
C    109.80836955   67.24874003   62.58078529
H    110.61263277   67.34376249   61.83507870
O    109.87317182   68.28376883   63.52912083
H    110.82520477   68.42276838   63.72495836
C    109.93043499   65.91319317   63.31582563
H    109.12571874   65.90134292   64.06797127
P    112.51082804   66.55365282   63.48913799
O    112.78501182   66.10004466   62.09394783
O    112.51894536   68.01623026   63.80883059
O    111.13158164   65.83424523   64.05155694
O    113.54663251   65.77343911   64.45696625
C    113.87608412   66.31678888   65.72302585
H    114.87557536   65.94126425   65.95400776
H    113.88259986   67.40952708   65.65331619
C    112.88450252   65.89660382   66.80961659
H    112.60850716   64.84518355   66.66154816
O    111.69726593   66.67786880   66.68565010
C    110.53311451   66.03547333   66.65707423
O    110.42417715   64.83377966   66.77495422
C    109.35751216   66.97254585   66.61160821
H    109.64126966   67.86420525   66.05260244
H    108.54441829   66.47351980   66.08109462
C    113.50472135   66.13166413   68.20474338
H    114.08412435   67.06064582   68.18198662
H    114.13978141   65.28618483   68.47080002
O    112.51071371   66.23906107   69.21122316
C    112.21764615   67.47303099   69.67106789
O    112.73825793   68.48114637   69.25638143
C    111.23891295   67.40873040   70.80844536
H    110.51898529   66.61150834   70.63859531
H    110.71864706   68.36464296   70.86636921
C    108.91301227   67.33036349   68.04129828
H    108.11152237   68.06648995   67.96597391
H    109.74715688   67.81312447   68.55209540
C    108.42700146   66.10203887   68.81564003
H    109.25708678   65.41513013   68.97675712
H    107.69802384   65.58643436   68.18500831
C    107.78749022   66.47634935   70.11955150
H    107.19401685   67.38191437   70.09979209
C    107.90006913   65.79155744   71.24853151
H    108.47791680   64.87806351   71.28379403
C    107.23692755   66.18919873   72.53267667
H    106.44066723   66.90983049   72.31956994
H    107.96318742   66.69070927   73.17819209
C    106.65564929   65.01597016   73.25986695
H    105.98819956   64.39401399   72.68035431
C    106.88746526   64.73359208   74.53136652
H    107.55693701   65.35613678   75.11167478
C    106.25491028   63.60290939   75.28312830
H    105.55754581   63.05603317   74.64818282
H    105.68534095   64.03481194   76.11586525
C    107.26814956   62.66185409   75.85967953
H    108.14001115   63.12395271   76.30400436
C    107.12489485   61.34413512   75.88263978
H    106.24414668   60.88726911   75.45055819
C    108.10007581   60.38489486   76.49182507
H    107.71987868   60.04133538   77.45887380
H    109.05020922   60.89415874   76.67550985
C    108.31173083   59.20456928   75.59519613
H    108.51404384   59.44293930   74.55974656
C    108.24443432   57.93812550   75.98123380
H    108.03380316   57.69476731   77.01562084
C    108.46462523   56.76596708   75.08210310
H    108.65842044   57.10706321   74.06418683
H    107.55788171   56.15583901   75.07372847
C    109.63509726   55.90353677   75.56960874
H    109.40030704   55.49483314   76.55537232
H    110.51828630   56.53710798   75.68238082
C    109.97273371   54.75657227   74.61707370
H    110.14460435   55.15283835   73.61396119
H    110.90361817   54.28976026   74.94982870
C    108.88948208   53.68162209   74.55102867
H    108.68806946   53.30846836   75.55829411
H    107.96383439   54.10875476   74.16227840
C    109.30664370   52.51776935   73.65909461
H    110.21432786   52.05048907   74.03609175
H    109.49674033   52.86085206   72.64449917
H    108.52532004   51.76157543   73.62360098
C    111.99197165   67.16445505   72.12673926
H    112.55915253   66.23571602   72.05841696
H    112.70420195   67.97663889   72.28213154
C    111.00865193   67.11117757   73.29468663
H    110.30788800   66.28911861   73.14196076
H    110.43434006   68.04009499   73.31064219
C    111.71151367   66.94226054   74.63974057
H    112.25481431   65.99714151   74.65558890
H    112.44569803   67.74108676   74.76744535
C    110.71289326   66.99441097   75.79598679
H    109.92538254   66.25589604   75.63223330
H    110.24322277   67.98092426   75.80354414
C    111.35879468   66.74241350   77.15959592
H    110.66887473   67.06192921   77.94450283
H    112.25800011   67.35430206   77.24676314
C    111.70245183   65.27082538   77.38227486
H    112.43567343   64.94745406   76.64238020
H    110.79349447   64.68079555   77.24655366
C    112.26235903   64.97937711   78.77421483
H    112.30669965   63.89722711   78.90497011
H    111.58573028   65.37672141   79.53469029
C    113.65837090   65.56107954   78.99201583
H    113.59653074   66.65090434   79.01644817
H    114.30277939   65.28590475   78.15333147
C    114.30975826   65.08223409   80.29090970
H    115.20124117   65.68602430   80.48097417
H    113.62234432   65.24530354   81.12474010
C    114.71924336   63.61131516   80.24718795
H    113.83503247   62.98299123   80.13133788
H    115.36410412   63.44520941   79.38094971
C    115.45775172   63.17716968   81.51068858
H    114.82558269   63.37496714   82.37809013
H    116.36889531   63.77020011   81.62318927
C    115.82234069   61.69453578   81.45994354
H    116.39346223   61.50923525   80.54651639
H    114.90740598   61.10012752   81.40366149
C    116.65171244   61.22184998   82.65418056
H    117.00757440   60.21161400   82.44419546
H    117.52848326   61.86506375   82.76361538
C    115.86780632   61.21254550   83.96521122
H    115.54862275   62.23003688   84.19846968
H    114.97047759   60.60087665   83.84529393
C    116.68090997   60.68105839   85.14692113
H    116.13243907   60.88874872   86.06916044
H    117.63039221   61.21901532   85.20166859
C    116.95084285   59.18230663   85.06846767
H    116.01586656   58.63201519   84.98797608
H    117.47037205   58.84568811   85.96289834
H    117.56947980   58.93899106   84.20870306
N    108.96652998   62.19719618   66.97577341
H    108.56565901   61.62070563   66.24806070
H    109.31142380   63.11298592   66.72201717
N    103.96785053   62.93648549   60.19224653
H    102.98838855   63.17124754   60.32407141
H    104.12691901   62.84240788   59.19734041
N    104.33541969   63.76375024   69.98895883
H    104.48333519   63.42803461   70.93274332
H    103.44571965   63.43347413   69.63492434
C    103.70349623   66.03754336   70.90264571
C    102.44353071   65.42806052   71.43552884
H    102.69340942   64.62883735   72.13192766
H    101.86563726   66.17967942   71.96752218
H    101.85076670   65.00901929   70.62682361
C    106.61264916   61.31387431   63.93968048
C    107.21112184   60.86799580   62.65328064
H    106.50056776   60.27536310   62.08165136
H    107.45604421   61.75059153   62.05755860
H    108.12180624   60.30091277   62.82627097
C    107.99127458   62.24828534   69.29671335
C    106.64498996   62.12714738   68.73070504
H    106.64941407   62.24569959   67.64940395
H    106.30080340   61.11240553   68.94896093
H    105.93576992   62.81586368   69.21750953
 
