%chk=MOL.chk
%nprocshared=32
%mem=64GB
#P B3LYP/6-31G* em=GD3BJ

MOL

  -2  1
C     45.55369733   39.77675855   66.04919377
H     45.85910122   39.75961425   67.10128203
C     44.33159858   40.73681764   65.89294372
H     44.09885768   40.81918007   64.83064370
H     44.65133243   41.72611726   66.23184155
C     43.14379858   40.31543306   66.64959192
C     41.98977071   39.74516258   66.11612250
H     41.79899030   39.53340964   65.08175871
N     41.09829998   39.51076484   67.08920879
H     40.15674071   39.17579403   66.94996998
C     41.60979441   39.93700203   68.29374535
C     42.91595588   40.43113063   68.05328026
C     43.67091490   40.91851807   69.12008062
H     44.66211733   41.31013732   68.95234397
C     43.11523461   40.89364803   70.38955107
H     43.69147853   41.26489139   71.22173011
C     41.04994732   39.92972241   69.55659259
H     40.03820144   39.59492692   69.71470107
C     41.82935996   40.41320303   70.60600684
H     41.42752186   40.42278040   71.60629127
C     45.14370453   38.33741630   65.70053150
O     44.92376576   37.53302177   66.59304718
N     45.04567529   38.06194677   64.39793725
H     45.20008699   38.80949164   63.72126996
C     45.05966334   36.70445945   63.88697023
H     44.84869900   36.04567285   64.73658006
C     44.05420915   36.48828410   62.75624420
H     44.28889392   35.53398548   62.28121906
H     44.19071926   37.28060432   62.01533646
C     42.61266504   36.48814584   63.26014989
H     42.51240692   35.75315583   64.05821599
H     42.39601909   37.47368788   63.67277685
C     41.64443452   36.17643576   62.11826448
H     41.77246993   35.13766221   61.81695109
H     41.90921141   36.81481131   61.27536291
C     40.19719055   36.45595205   62.52157703
H     40.16752665   37.33162618   63.16917352
H     39.76756794   35.60078330   63.04262819
N     39.38251392   36.76497392   61.31758373
H     38.40865100   36.96602373   61.57741523
H     39.41487266   35.98738974   60.64410087
H     39.78112306   37.62166404   60.87785790
C     46.47934315   36.38811211   63.40484280
O     47.16282838   35.51576636   63.91780544
N     46.90251672   37.13715831   62.37649708
H     46.34965894   37.88581415   61.95950510
C     48.20991268   36.95623202   61.78840667
H     48.56899789   35.97288289   62.13240151
C     48.11022115   36.99582647   60.26902533
H     47.82852320   38.00075993   59.94916032
H     49.05627911   36.70978325   59.81542902
S     46.80772708   35.84875505   59.73951864
H     47.21193156   35.71256413   58.47813676
O     49.94012434   38.60249385   61.55427077
C     43.32647874   38.91092347   54.49324941
H     42.57495361   39.70556388   54.58401396
C     42.91792994   37.70243320   55.36194323
H     43.82980579   37.18908056   55.66741451
H     42.32306084   37.01497730   54.75918703
C     42.11013242   38.15558775   56.58093034
H     42.44084921   39.15263970   56.88380734
H     41.06566268   38.26802544   56.28665471
C     42.17306387   37.19841419   57.77510102
H     41.79050913   36.22163318   57.48305739
H     41.53743378   37.62524511   58.55054875
C     43.57680992   37.01977543   58.35252423
H     44.20649246   36.40932851   57.70664225
H     43.52174610   36.53538672   59.32751847
N     44.22389739   38.33684743   58.51400764
H     43.53442543   39.05355249   58.77131177
H     44.64696562   38.66192897   57.62652483
H     44.95002244   38.41613723   59.26817061
O     45.19193275   39.13891468   56.00036460
C     39.88817823   40.80152428   61.57767522
H     39.07832011   41.48892322   61.28593322
O     39.36917357   39.70468527   62.26909097
H     39.23420765   39.98209293   63.18736973
C     40.58446250   40.26660404   60.29879509
H     39.86634086   40.20061466   59.47515892
O     41.05296600   38.96783635   60.50033970
H     41.65607948   38.97943344   61.27384131
C     41.68854472   41.25318839   59.89784988
H     41.28472988   42.27771679   59.87118568
O     42.19157867   40.92066816   58.63352245
P     43.31489458   41.97959375   57.98530456
O     44.72615790   41.27149378   58.27994339
H     45.11244123   41.47515726   59.17679896
O     43.17387637   43.30306126   58.67674735
O     43.09770316   41.88614688   56.51558418
C     42.82724755   41.23541328   60.92711013
H     43.38867767   42.17924695   60.82935444
O     43.64376458   40.15231626   60.63351139
P     45.23347353   40.31942303   61.15791768
O     45.73895803   41.64524843   60.61301940
O     45.15124086   40.26078127   62.67828104
O     45.85002234   39.06457076   60.56914722
C     42.30408449   41.11255680   62.37320943
H     42.91556028   41.75915869   63.01466832
O     42.38920845   39.78199516   62.81384341
H     43.35134910   39.59859206   62.83842086
C     40.86726349   41.61575880   62.45708688
H     40.89450558   42.66170322   62.10780656
P     40.86806043   42.93035328   64.66463081
O     42.34569775   43.01013594   64.79631896
O     40.09660144   44.09308483   64.13578420
O     40.41316151   41.57702996   63.78357180
O     40.27373381   42.41006426   66.08233796
C     38.90108833   42.64896211   66.34950766
H     38.28120753   41.97720958   65.75050616
H     38.65567128   43.67544022   66.05980649
C     38.66584925   42.42611362   67.84425539
H     39.58988299   42.69118974   68.37112701
O     38.46386354   41.05633425   68.17111871
C     37.36252595   40.40210861   67.75311875
O     36.55346037   40.84704112   66.97389429
C     37.26325182   39.06880337   68.44073543
H     36.55541574   38.44294331   67.89858681
H     38.24237381   38.59257351   68.47360744
C     37.50941781   43.27913584   68.38561828
H     36.57468787   43.02985394   67.88235243
H     37.75090711   44.33608334   68.24436974
O     37.31761896   42.99455214   69.76112157
C     38.07145935   43.65805990   70.65634483
O     38.85058983   44.53128791   70.35017175
C     37.83019462   43.13905907   72.04209311
H     36.87473615   42.61675889   72.06045125
H     37.81436588   43.98628539   72.72612059
C     36.76989415   39.30766134   69.87922138
H     37.42859778   40.02947426   70.36248066
H     35.76872269   39.73904393   69.84413394
C     36.73577548   38.00067660   70.68493216
H     36.30513219   38.23068965   71.66130763
H     36.08093489   37.28856585   70.18478387
C     38.09976585   37.40951283   70.86580710
H     38.30775595   36.49019894   70.33671643
C     39.03972417   37.96619629   71.63048717
H     38.82295380   38.88876965   72.14964153
C     40.41594213   37.42503186   71.79324206
H     40.43108711   36.34526408   71.60288430
H     41.05928768   37.84903261   71.00449112
C     41.06424496   37.69476670   73.09792155
H     42.13733949   37.55597194   73.11546210
C     40.42859786   38.07190333   74.21716306
H     39.35190648   38.15921699   74.22597209
C     41.12364118   38.33474303   75.49919205
H     41.25097927   37.35630252   75.99297133
H     42.13969837   38.70497376   75.33868556
C     40.37687715   39.18442682   76.45928979
H     39.30093838   39.20959175   76.35150466
C     40.96387784   39.89287117   77.43129644
H     42.03792130   39.85838675   77.55365461
C     40.22068792   40.78303431   78.36093330
H     39.99650110   41.73256968   77.86092257
H     39.24573501   40.33300310   78.58514365
C     40.94121304   41.06301840   79.63274685
H     41.57933643   40.27497369   80.00930751
C     40.81665024   42.19515584   80.32673050
H     40.19255605   42.99576144   79.95008715
C     41.46584151   42.45567660   81.63905073
H     40.68975147   42.47678880   82.41140970
H     42.16157043   41.65149460   81.88513956
C     42.19782802   43.80225779   81.66815943
H     42.58861579   43.97112544   82.67395996
H     41.49430420   44.60797153   81.44740242
C     43.34827398   43.84762683   80.66549006
H     42.94756960   43.78082323   79.65178970
H     44.00345952   42.98769940   80.82252298
C     44.16650994   45.12909881   80.80309401
H     43.50467672   45.99294321   80.71400582
H     44.61927626   45.16603878   81.79705201
C     45.26248220   45.22171445   79.74759879
H     45.94641247   44.37956311   79.82925909
H     44.83459481   45.21914716   78.74710072
H     45.83534088   46.13857488   79.86963770
C     38.97331659   42.18030122   72.41907399
H     39.90168172   42.74957742   72.47214474
H     39.08584476   41.44889865   71.61613626
C     38.71028641   41.44724842   73.73701524
H     37.83623361   40.80619343   73.60902556
H     39.57795651   40.82000515   73.95095246
C     38.45630488   42.35882518   74.93814223
H     38.22149790   41.73182822   75.80038887
H     37.58213032   42.98312163   74.74907708
C     39.64428742   43.25140447   75.29085545
H     40.51308606   42.63125168   75.52206412
H     39.90710330   43.88000194   74.43844457
C     39.32974928   44.15953950   76.47839649
H     38.49844199   44.81895225   76.21657998
H     39.00459766   43.56061508   77.33290705
C     40.52784111   45.01276292   76.88822288
H     41.37668929   44.36801728   77.12849333
H     40.82491180   45.64295089   76.04582314
C     40.21355671   45.90069336   78.09011091
H     40.01285812   45.27665777   78.96407556
H     39.30887897   46.47928178   77.88586004
C     41.35477514   46.86138982   78.41346295
H     42.27846821   46.29666790   78.55656814
H     41.51111023   47.53467621   77.56648642
C     41.06774386   47.68807963   79.66505394
H     40.99401547   47.02375521   80.52976301
H     40.10434385   48.18777013   79.54768737
C     42.15489367   48.72889589   79.92531452
H     42.13910125   49.47604554   79.12779901
H     43.13125045   48.23811026   79.89059094
C     42.01263750   49.42965220   81.27704680
H     41.99843759   48.68045070   82.07248984
H     42.89106671   50.06055068   81.43671576
C     40.76110464   50.29882102   81.38305340
H     40.74441564   51.00989813   80.55310841
H     39.86973606   49.67410993   81.30316769
C     40.71121279   51.06543905   82.70311747
H     40.73303938   50.35519509   83.53342390
H     41.59866656   51.69590806   82.78159320
C     39.45439372   51.92657402   82.81212393
H     39.46055750   52.67754306   82.01821728
H     38.57969893   51.28998972   82.65516868
C     39.31077069   52.62620158   84.16449760
H     39.37160244   51.88280371   84.96272421
H     38.31986900   53.08435785   84.21522706
C     40.36128684   53.70600765   84.39862439
H     41.35884487   53.27745827   84.44691499
H     40.16927751   54.22225227   85.33664824
H     40.33927296   54.43857182   83.59438857
N     43.48647284   38.60109580   53.08738844
H     44.12411750   37.82815747   52.94647209
H     42.60144916   38.41870459   52.63574841
C     44.62222257   39.54698559   55.00803185
C     45.12198241   40.68658206   54.19328064
H     46.19216513   40.81943033   54.32347900
H     44.84417851   40.57754616   53.15022692
H     44.62175489   41.56520836   54.60818058
N     46.68344051   40.17528288   65.25367876
H     46.40895986   40.34422156   64.28834349
H     47.11012677   41.02185198   65.60930810
C     49.19678063   38.00779750   62.30398729
C     49.17620819   38.20734861   63.78629129
H     48.33402112   38.85459997   64.04139783
H     49.03248561   37.26006886   64.29908641
H     50.09214858   38.69376122   64.10843076
 
