%chk=MOL.chk
%nprocshared=32
%mem=64GB
#P B3LYP/6-31G* em=GD3BJ

MOL

  0  1
C     75.10203604   50.56829657   73.01243351
H     74.26895758   50.74149620   73.70827289
C     76.28440694   49.95642571   73.81405939
H     77.15668133   49.91655661   73.15101276
H     76.51154269   50.63494982   74.64075327
C     75.94469192   48.58415679   74.31081221
C     76.36102279   47.46443533   73.59866236
H     76.96228114   47.60730042   72.70537195
C     76.03014061   46.19363020   74.03923530
H     76.36491886   45.33663220   73.47410020
C     75.28017269   46.03159449   75.19232262
H     75.02673944   45.03984519   75.53156181
C     75.18704975   48.41202519   75.46498944
H     74.86388658   49.28337058   76.01472477
C     74.86070896   47.14228763   75.90560261
H     74.27887069   47.02159829   76.80535978
C     75.59137056   51.91339481   72.53777466
O     75.71813206   52.84939257   73.35083894
N     75.82830019   52.13324813   71.25665983
H     76.14873112   51.34813868   70.67689127
C     76.46998421   53.41006459   70.98407912
H     77.55983538   53.23702063   71.00059775
C     76.14059100   53.89665888   69.55773106
H     76.63101355   53.15754817   68.90850820
C     74.64849707   53.91095198   69.22823332
H     74.52200221   53.85121853   68.15121956
H     74.17199127   54.81773462   69.58595608
H     74.16520790   53.04293343   69.66928652
C     76.81734299   55.24909077   69.30753537
H     76.36540020   56.01334154   69.94313154
H     77.86750572   55.14724886   69.59665732
C     76.75168153   55.67674776   67.84659186
H     75.72331662   55.81257263   67.52726711
H     77.21899075   54.91014891   67.23042840
H     77.29244545   56.60870821   67.70766643
O     77.07431901   54.96808849   72.70021141
C     76.16095561   54.98427900   76.55530957
H     75.08718988   54.89343370   76.33367731
C     76.76540119   53.57029101   76.43321332
H     76.57842985   53.21690107   75.41752557
H     76.22161721   52.91403855   77.11314066
C     78.26665791   53.52289397   76.75173909
H     78.42342115   53.02699681   77.70878132
H     78.66888936   54.53360886   76.84065249
C     79.07767452   52.78816848   75.68721218
H     80.11953342   52.69518978   76.00359633
H     78.67864773   51.78016383   75.51751942
N     79.05210416   53.54269486   74.44892936
H     78.21296413   54.08368836   74.25977126
C     79.82133563   53.30417978   73.39558274
N     79.69205345   54.11856126   72.34252202
H     78.79294337   54.61609556   72.31778917
H     79.99879263   53.78028628   71.43684106
N     80.87524898   52.47942715   73.49612661
H     81.30287254   52.20520298   72.62385873
H     80.77959790   51.68367470   74.11449834
O     76.35298511   54.74345426   78.93482069
C     86.96216787   52.24996965   75.47042121
H     88.03490439   52.37901277   75.27832228
C     86.60543622   50.76198261   75.29418267
H     86.48360458   50.55736270   74.22690926
H     85.63488255   50.58104916   75.76197973
C     87.64869527   49.79526103   75.86416960
H     88.62324278   50.07281674   75.45070123
C     87.32445881   48.37256233   75.41036678
H     87.24433470   48.32864599   74.32561026
H     88.09693688   47.68199236   75.73746354
H     86.37058201   48.04812322   75.82567868
C     87.71400026   49.87030567   77.38552802
H     86.75872586   49.57995750   77.81729842
H     87.93238024   50.88607962   77.69712770
H     88.48301632   49.20128248   77.76245581
O     86.75900805   53.26782897   73.31846149
C     88.53041566   51.05691353   70.23869564
H     89.37955542   51.65730875   69.87715863
C     88.71557298   49.58561420   69.83178067
H     87.80202229   49.08054375   70.15672466
H     88.77600189   49.53371555   68.74570840
C     89.92695492   48.93345756   70.48921258
H     89.92610146   49.20597858   71.54293418
H     90.84471510   49.30875337   70.03886381
C     89.86549162   47.40871802   70.37728400
H     90.65714155   46.96692606   70.98474269
H     88.90806390   47.05626910   70.76382818
N     90.05490126   46.94771019   69.01420310
H     91.01806950   46.92701960   68.70606757
C     89.12229434   46.61997630   68.12682081
N     87.82151174   46.70803236   68.38009917
H     87.43337323   47.16576077   69.19078362
H     87.14645134   46.40047272   67.70040050
N     89.51832522   46.20397941   66.91769154
H     88.83372457   45.85989062   66.26265913
H     90.47715035   45.93449246   66.76099916
O     87.09287894   51.23373763   68.34976350
C     88.77241168   52.64029620   64.91954455
H     89.38123929   53.55032557   64.81351024
C     89.37769337   51.76842351   66.04872315
H     88.61631382   51.63099796   66.81613299
H     89.64208575   50.78555397   65.66127263
C     90.61221563   52.40515291   66.69160343
H     90.39767635   53.44760242   66.92728481
H     90.81490538   51.89926525   67.63567383
C     91.86538746   52.33358811   65.80394637
H     91.58712732   52.38684749   64.75163778
H     92.51498445   53.18316984   66.02345402
N     92.63538062   51.13033223   66.05726839
H     93.15304531   51.14320631   66.92510360
C     92.70798967   50.02306802   65.32316936
N     91.99921380   49.85063097   64.21915827
H     92.13492332   49.02369689   63.66115867
H     91.36358919   50.55614610   63.85298973
N     93.49345470   49.02823124   65.75561904
H     93.65695144   48.22428359   65.17126709
H     94.11904261   49.16616515   66.53233733
C     88.90207301   51.90275521   63.58830604
O     90.00210587   51.53697383   63.18598141
N     87.77079587   51.58678350   62.95223067
H     86.91342156   52.06294530   63.18478979
C     87.80459515   50.89037433   61.68316815
H     88.53926968   50.08377774   61.76443284
C     86.42408506   50.32290062   61.32820360
H     85.71162440   51.14573409   61.24012531
H     86.50162548   49.86083350   60.34392982
C     85.88356350   49.27453700   62.31047231
H     85.09681548   48.73342182   61.78605903
H     86.66629137   48.55674658   62.54802400
C     85.29129735   49.85644967   63.60619411
H     85.08116305   50.91545876   63.46200065
H     84.32868817   49.38972196   63.81470740
C     86.19222053   49.67134301   64.83117917
H     85.98997201   48.70165044   65.28241045
H     87.24413747   49.73591797   64.55540625
N     85.91339076   50.73680926   65.82236996
H     86.35863139   51.67410356   65.52073854
H     86.30754280   50.54751034   66.75715358
H     84.89481695   50.82940601   65.95571518
O     88.04463436   53.04450691   60.67159118
C     83.54781928   50.32099701   68.47348699
H     84.48563284   49.77499005   68.32008102
O     83.89196506   51.67423828   68.35879141
H     83.09085440   52.20810252   68.44117569
C     82.50959025   49.93142078   67.39658854
H     82.44385552   48.84074909   67.32832707
O     82.92715572   50.42489227   66.14958301
H     82.51261124   51.29123183   66.01450975
C     81.12493924   50.47636279   67.77039220
H     80.34899092   50.11928705   67.07121451
O     81.18644694   51.87782234   67.69942691
P     79.87931461   52.82358692   68.17453506
C     80.69342467   50.04350321   69.17052573
H     80.67785269   48.93580798   69.25039299
O     79.41095453   50.53339688   69.35882258
P     78.53377886   49.93931669   70.68920007
C     81.70420408   50.57243325   70.19107842
H     81.76206071   51.66905566   70.07171346
O     81.36020051   50.28298208   71.51703426
H     80.38706517   50.45778986   71.61329980
C     83.04321639   49.91381285   69.86239026
H     82.86648428   48.82593319   69.86593081
P     85.02589802   48.97759059   71.16338392
O     85.51575970   48.38754633   69.88751583
O     85.98506957   49.46610795   72.18417194
O     83.99724204   50.21986625   70.84018701
O     84.04031345   47.82380063   71.82810463
C     83.96923985   47.74965864   73.22200631
H     84.00449648   46.68944880   73.49924068
H     84.83099997   48.27423397   73.65341182
C     82.69918218   48.37546761   73.80410505
H     82.62345600   49.42469724   73.49573513
O     82.81134963   48.29898913   75.22160117
C     83.04929232   49.42447758   75.91684813
O     83.16029062   50.51979530   75.42150922
C     83.20102912   49.11486328   77.38133759
H     84.23150664   48.77774893   77.52523943
H     82.54092099   48.28342238   77.62743289
C     81.43487904   47.61929368   73.36049219
H     81.02217609   48.09594341   72.46552964
H     81.66475364   46.57349465   73.14827130
O     80.44539768   47.55500090   74.38050239
C     79.97355622   48.67409123   74.92740989
O     80.32982136   49.79471366   74.63191548
C     78.96573675   48.36513124   76.00436930
H     77.99811331   48.68496387   75.61017055
H     78.93181620   47.28808794   76.15653387
C     82.93203007   50.33879363   78.25588680
H     83.62921249   51.12937210   77.97523588
H     81.92190970   50.70028076   78.05523792
C     83.08180959   50.02899506   79.75035962
H     82.81218546   50.92762240   80.30667216
H     82.38097893   49.23707821   80.01865635
C     84.47838691   49.61497939   80.10977538
H     84.70622607   48.56259827   80.00454732
C     85.41421917   50.45634008   80.51655993
H     85.18159909   51.50842022   80.62168296
C     86.81188756   50.06718363   80.89095621
H     87.50888488   50.57787142   80.22028792
H     86.94397977   48.99032109   80.78109380
C     87.09707508   50.48877030   82.30119583
H     87.09010271   51.55773628   82.47379058
C     87.32272048   49.65930385   83.30514263
H     87.31655100   48.58936344   83.13938613
C     87.56672965   50.08888187   84.71978476
H     87.65895696   51.17862250   84.75761321
H     88.50388709   49.65744556   85.07734986
C     86.42524279   49.66850208   85.60224929
H     85.45332009   49.74473356   85.13000409
C     86.49444863   49.25501411   86.85845058
H     85.57745106   48.99876230   87.37538074
C     87.72909286   49.10140999   87.69872344
H     88.62422903   49.17819469   87.07849116
H     87.75845808   49.90843230   88.43676959
C     87.72138978   47.78005446   88.40678094
H     87.71373719   46.91144053   87.75998681
C     87.70826177   47.62938926   89.72036649
H     87.70880936   48.50222447   90.36235934
C     87.68055908   46.31467683   90.43229396
H     87.70287268   45.49898810   89.70667412
H     88.56886454   46.22931485   91.06565298
C     86.43452874   46.18647119   91.31460488
H     85.54347794   46.26021673   90.68623394
H     86.41512102   47.01811182   92.02075736
C     86.41414213   44.86114120   92.07260078
H     86.49888120   44.04466130   91.35077145
H     87.28347213   44.80906764   92.73271006
C     85.14334911   44.65351005   92.89793524
H     84.27082360   44.77148971   92.25105096
H     85.13811398   43.62760336   93.27443455
C     85.03032958   45.60976382   94.08015890
H     85.90988596   45.53350714   94.71590133
H     84.15382317   45.36844266   94.67731502
H     84.93586933   46.63854631   93.74300108
C     79.26901909   49.12632647   77.30053108
H     80.04456924   48.59551511   77.85379634
H     79.65722395   50.11230690   77.03593202
C     78.02465664   49.28506515   78.16985785
H     77.60976062   48.30002855   78.38824362
H     77.27797190   49.84314916   77.60382322
C     78.34292985   50.01269957   79.47481182
H     78.78143357   50.98567931   79.24325364
H     79.08861545   49.43430142   80.02353770
C     77.11627711   50.21425423   80.36471926
H     76.63539400   49.25009983   80.54095530
H     77.45025920   50.60267356   81.32896922
C     76.09966621   51.19002131   79.77604376
H     76.60288748   52.12165694   79.50758506
H     75.66546686   50.77090037   78.86577597
C     74.97746896   51.51600833   80.75816364
H     75.41672225   51.94800050   81.65791343
H     74.45701822   50.59851741   81.04357722
C     73.98229052   52.50264993   80.15107882
H     73.49398077   52.02723232   79.29566373
H     74.53295577   53.36785391   79.77462792
C     72.91449675   52.97677642   81.13764744
H     72.46420706   52.11166771   81.63050884
H     72.12477200   53.48650290   80.57958227
C     73.46611545   53.93748558   82.18871143
H     74.20754723   53.42427826   82.80307526
H     73.97325586   54.76114483   81.68066411
C     72.37173110   54.49617133   83.09482455
H     71.62180180   55.00531301   82.48423172
H     71.87234037   53.67106381   83.60880737
C     72.93353717   55.47146153   84.12705197
H     73.42121530   56.29996533   83.60758639
H     73.69303337   54.95686372   84.71785240
C     71.84589767   56.02174629   85.04668215
H     71.41546265   55.20490906   85.62845571
H     71.04425724   56.43671266   84.42981750
C     72.34202522   57.12381536   85.98496698
H     71.49049772   57.49757326   86.55958402
H     72.71896031   57.95189502   85.37913758
C     73.44214297   56.69904954   86.95935769
H     74.31750633   56.36138251   86.40203527
H     73.74355786   57.57870055   87.53451497
C     73.00835661   55.60551359   87.93312753
H     72.78710211   54.68925177   87.38356523
H     72.09370295   55.91896867   88.44217341
C     74.09015133   55.31445166   88.96697780
H     73.76752495   54.53170371   89.64967540
H     74.31403365   56.20676605   89.54778696
H     75.00509865   54.98749226   88.47740958
O     79.05543838   48.53472344   70.93009556
O     77.09983471   49.98509373   70.18217438
O     78.81513213   50.92019009   71.82907962
O     78.62768702   52.36537242   67.52619895
O     80.02881727   53.23537411   69.60634028
O     80.39870663   54.10521065   67.29564492
H     80.96750694   54.68280381   67.80936458
N     76.68981921   55.98171349   75.64101629
H     76.54152219   55.69307911   74.67794835
H     77.69371067   56.07260970   75.76049333
C     76.22041644   55.49543880   77.99436858
C     76.05795724   56.97359787   78.14637250
H     75.96175001   57.23729003   79.19565411
H     76.92510118   57.46688618   77.71497226
H     75.19263984   57.30390770   77.58013585
C     88.25157765   51.85453521   60.57601069
C     88.96842026   51.21914916   59.42978332
H     88.97792415   51.88397220   58.57024551
H     89.99758380   51.04312460   59.74161123
H     88.52469674   50.26360361   59.16755191
N     88.53301428   51.15867063   71.68368121
H     88.33162598   52.10239126   71.99584012
H     87.78859643   50.57534501   72.05691531
C     87.29653876   51.57320386   69.50287782
C     86.38977276   52.50842973   70.22271894
H     85.81208824   51.90330121   70.92632275
H     86.92470200   53.25432059   70.80404795
H     85.68436117   52.96718838   69.53557987
N     87.37535401   52.97146382   65.23341412
H     87.33659405   53.36919638   66.16930965
H     87.02846943   53.69043300   64.60267139
N     86.69658292   52.69925307   76.82404000
H     86.81799618   53.70326743   76.89295738
H     85.74457080   52.47159070   77.08822070
C     86.21357002   53.00130209   74.37195823
C     84.78917620   53.37239821   74.65782276
H     84.21780620   52.46557398   74.85430648
H     84.72370981   54.01086833   75.53559327
H     84.35049234   53.88339812   73.80472783
N     74.59903470   49.75745359   71.92515794
H     75.33061382   49.63692321   71.22870137
H     74.39183706   48.82986461   72.28461858
C     76.14341196   54.37130964   72.14082788
C     74.74416351   54.93555233   72.22684511
H     74.54640592   55.22340910   73.25620907
H     74.70255924   55.82796872   71.60691177
H     74.00863899   54.21265092   71.89679709
 
