%chk=MOL.chk
%nprocshared=32
%mem=64GB
#P B3LYP/6-31G* em=GD3BJ

MOL

  2  1
C     34.58139244   80.17620833   66.40306492
H     35.43400578   79.99311926   67.06854889
C     34.42701358   78.96498743   65.46181042
H     35.22775619   78.99257024   64.72231084
H     33.46944116   79.06096908   64.94820406
C     34.48000084   77.65993648   66.25242633
H     33.74934247   77.71420122   67.05767000
H     35.46779759   77.55822006   66.70233736
C     34.17634384   76.42622023   65.39772493
H     33.13996176   76.45036498   65.06541400
H     34.33601153   75.52825286   65.99946423
N     34.99898696   76.34785492   64.20094549
H     34.58897236   76.70770792   63.35112636
C     36.30915772   76.11550183   64.20024905
N     36.96486995   75.84508031   65.32264053
H     37.91092402   75.48360059   65.23822528
H     36.46070697   75.42616242   66.10662183
N     36.98866257   76.22056643   63.05347604
H     36.53989771   76.46956629   62.18778121
H     37.95595782   75.94309898   63.04064158
O     33.94248519   82.21654860   65.27132137
C     31.63194550   69.30383305   63.11553469
H     31.16509626   70.07362301   62.49238002
C     33.15838337   69.36119689   62.89746768
H     33.64608922   68.72504554   63.63359589
H     33.39333166   68.98050422   61.90325275
C     33.67479620   70.79156747   63.03670064
H     33.35918273   71.19855737   63.99705111
H     33.23813268   71.40801235   62.25065157
C     35.19411345   70.87330506   62.92193949
H     35.52813139   70.28669373   62.06242012
H     35.50016219   71.91762565   62.78824100
N     35.81461034   70.33327668   64.12410781
H     35.26643730   70.47209471   64.97173675
C     37.13052566   70.31414260   64.31660730
N     37.58417353   69.87644464   65.50640440
H     38.57290233   70.00692963   65.67779709
H     37.01971190   70.14414621   66.30173795
N     37.99116340   70.45571042   63.30660384
H     38.92805891   70.77508882   63.55774415
H     37.64415240   70.85398861   62.44825023
O     31.10656761   66.97337735   63.47996643
C     30.08117905   68.15194770   70.52486369
H     30.15792464   67.09249111   70.79540921
C     30.79434603   68.39288795   69.17796289
H     30.10706770   68.08737017   68.38900094
H     30.96195371   69.46520774   69.06238714
C     32.12798146   67.65799717   69.04608887
H     32.64488330   68.07336726   68.18189390
H     32.72528157   67.84598087   69.93958046
C     31.97130591   66.13410597   68.89485802
H     32.93072157   65.69251925   68.61797016
H     31.66375610   65.70580201   69.84781064
N     30.96104276   65.74789912   67.92478343
H     30.04464836   65.55384199   68.30044226
C     31.03621229   65.97310094   66.60883818
N     32.16649518   66.34568155   66.02444765
H     33.02697428   66.46195185   66.53094509
H     32.13821475   66.51753584   65.02143633
N     29.96570856   65.77784659   65.84344213
H     29.07334852   65.51723402   66.22636565
H     30.04243883   65.96477770   64.85060029
O     31.72720190   68.43443242   72.24790571
C     33.22708668   66.07454933   74.24897852
H     33.50573580   65.41406529   75.08249038
C     32.69289427   65.22230030   73.07771828
H     31.62770556   65.05832690   73.24913880
H     32.79223762   65.81974293   72.17103751
C     33.41304880   63.87116420   72.93903678
H     32.79397052   63.07930068   73.35914142
H     34.34155518   63.89440879   73.50997257
C     33.74701638   63.53107847   71.48989600
H     32.84233705   63.59002052   70.87746314
H     34.14501024   62.51222695   71.44812405
N     34.74240414   64.47717661   71.01691357
H     35.03470591   65.17511040   71.70941246
C     35.30566062   64.46939583   69.82125547
N     34.93829057   63.59034655   68.88646242
H     35.43616126   63.54141210   68.01183022
H     34.31989776   62.82998907   69.11525641
N     36.19800500   65.41653530   69.51837622
H     36.50696012   66.05472121   70.23372774
H     36.72824405   65.38504378   68.66181340
C     34.50247366   66.81841747   73.84567719
O     35.31524176   66.37042217   73.03730667
N     34.64799895   67.99199603   74.45093745
H     33.91731148   68.26145847   75.09915298
C     35.77499383   68.88415660   74.29014272
H     36.39844070   68.50319470   73.48151077
C     35.30037763   70.30239123   73.96054124
H     36.18461536   70.93745289   73.86204721
H     34.72988157   70.67575066   74.81354190
C     34.45818394   70.38234712   72.68642021
H     33.56367804   69.76781655   72.79695524
H     34.14644455   71.42123911   72.57128975
C     35.23719100   69.94567024   71.44189519
H     36.26395328   70.30802040   71.51881914
H     35.25043982   68.85743126   71.39849762
C     34.62058269   70.51183819   70.16511459
H     33.61205936   70.12670862   70.01536159
H     34.57530247   71.59860590   70.23102292
N     35.46156503   70.15442261   68.99513240
H     35.22147861   70.71338817   68.13105294
H     35.41009715   69.14908496   68.79822484
H     36.44536615   70.40571547   69.21083437
C     36.54430335   68.88749587   75.62498459
O     36.13187626   69.54476791   76.57997077
N     37.61283962   68.08857135   75.71736831
C     38.19482982   67.25234306   74.67467061
H     37.40947841   66.73172785   74.12437811
H     38.79071291   67.87174723   73.99169696
C     38.37920998   68.02405758   76.96141848
H     37.76463985   67.54438639   77.73603342
C     39.59415710   67.15307662   76.60440934
H     39.92970941   66.57706450   77.46316016
H     40.41910474   67.78790243   76.27680637
C     39.09430848   66.29008362   75.45003269
H     38.50996161   65.45609084   75.83708420
H     39.92651963   65.92032064   74.85620261
O     38.76632929   69.60861844   78.72923891
C     43.09166621   69.06924116   68.34148023
H     42.45683554   69.45432508   69.16094046
C     43.65608148   67.71137475   68.79766780
H     44.35945127   67.35845485   68.04336984
H     44.21063425   67.90628072   69.71977612
C     42.55190809   66.69179532   69.06899074
H     42.27816316   66.19384738   68.13865410
H     41.68260957   67.23627441   69.43705657
C     43.00460191   65.67126102   70.11993249
H     43.21178186   66.19493567   71.05729520
H     43.92529367   65.19091875   69.78738601
N     42.02219955   64.63286552   70.35449401
H     42.10083129   63.80665606   69.77836018
C     40.96148277   64.74777131   71.14993315
N     40.66977240   65.87875501   71.77435408
H     41.25392753   66.70295978   71.71289164
H     39.94492536   65.90142766   72.47256813
N     40.13386673   63.70212463   71.26883877
H     40.39985010   62.80407941   70.89636215
H     39.41104857   63.71873052   71.97167680
O     40.97391395   68.90795558   67.21053819
C     39.67652218   72.86820064   70.56820647
H     39.84095660   73.90149026   70.23121274
O     39.61436499   72.90099050   71.96982969
H     40.00547634   72.08407879   72.32850100
C     38.35897469   72.38363391   69.94658450
H     37.53015119   72.90645224   70.44154979
O     38.08696554   71.01818524   70.11277667
H     38.91350085   70.51085966   70.07549571
C     38.36312506   72.79035181   68.45797972
H     38.02992559   73.83701914   68.38905566
O     37.44570176   71.98681815   67.79714721
P     36.39325309   72.68352432   66.72828935
O     37.08694118   72.75374562   65.28904618
H     37.92582928   73.28156542   65.24707898
O     35.33661875   71.62201729   66.66320291
O     36.05138071   74.05363196   67.22013061
C     39.75203134   72.71386399   67.77780851
H     40.12777027   73.74657071   67.65633715
O     39.60080894   72.11643783   66.52799917
P     40.22960778   73.02246542   65.25550338
O     39.25058352   74.20027212   65.13043210
O     41.62248784   73.45293616   65.69776226
O     40.16689596   72.06171489   64.09541925
C     40.84903905   71.92993166   68.50736433
H     40.70312899   70.86863097   68.23689675
O     42.11168114   72.35556030   68.03957089
H     41.98094405   72.74044256   67.12449314
C     40.83594985   72.01561856   70.04388154
H     41.79417719   72.44866617   70.36284579
P     41.87503314   70.13454646   71.58097732
O     41.70670129   68.66391959   71.58406080
O     43.19046742   70.80018803   71.38135245
O     40.72732583   70.70844370   70.56178922
O     41.16905391   70.75022402   72.96877658
C     42.01165667   70.81290163   74.08530577
H     42.86240674   71.47181625   73.87559400
H     41.42236208   71.25199129   74.89561799
C     42.51599655   69.42541005   74.49686986
H     41.92192916   68.67848601   73.96150700
O     42.29867391   69.13235253   75.86147775
C     42.81401885   69.97230720   76.82000766
O     43.44710108   70.99519024   76.55132608
C     42.46473294   69.45817488   78.18867222
H     43.04551289   68.55117322   78.38195400
H     41.40762158   69.17460958   78.18274619
C     43.98939490   69.25076985   74.09632315
H     44.02886652   69.19584823   73.00335926
H     44.57009858   70.10847495   74.44322806
O     44.58592515   68.12882998   74.69284855
C     44.12849922   66.88272964   74.36481705
O     43.29800934   66.66107675   73.49438840
C     44.78404630   65.86161439   75.25145777
H     45.82285152   66.16267955   75.39052466
H     44.74012716   64.88345524   74.77610050
C     42.72915092   70.48457399   79.28376992
H     42.22132662   71.41639546   79.02347644
H     43.79894305   70.69399395   79.32531415
C     42.22226566   69.98640935   80.64246694
H     42.39496895   70.77016883   81.38310385
H     41.14469593   69.82720695   80.56622293
C     42.89463191   68.71230109   81.06318793
H     42.31495475   67.81217907   80.90881143
C     44.11410329   68.60814746   81.57019924
H     44.49892742   67.62967060   81.82598296
C     45.06724997   69.73625318   81.83493673
H     45.83206602   69.74626943   81.05158510
H     44.53665825   70.69011782   81.79411959
C     45.72530458   69.58523987   83.17316478
H     45.04875510   69.57783360   84.01841399
C     47.02858338   69.46410163   83.36058926
H     47.69898083   69.46825770   82.50933689
C     47.69637426   69.33664604   84.69304379
H     46.94725037   69.38198082   85.48988795
H     48.37133595   70.18820282   84.83129085
C     48.49462137   68.07199541   84.84389938
H     49.23841785   68.09148801   85.63100460
C     48.34048113   66.98083272   84.11382631
H     47.58506150   66.95031448   83.33923416
C     49.12955465   65.71991347   84.30682233
H     49.53189062   65.40036017   83.33988530
H     49.96182403   65.89704714   84.99018461
C     48.23887544   64.64128511   84.84806495
H     47.38866829   64.39150577   84.22760360
C     48.41789705   64.02549546   86.00395442
H     49.26761043   64.28191163   86.62338939
C     47.49358621   62.98238738   86.55050773
H     46.89149790   62.56996357   85.73789501
H     48.07368581   62.16846961   86.98880109
C     46.53794514   63.55590202   87.60765303
H     45.88086845   62.75402183   87.95372381
H     45.91518851   64.31585227   87.12932884
C     47.23124196   64.18854941   88.81452498
H     47.86438596   65.01222606   88.47889849
H     46.46161898   64.61443104   89.46415284
C     48.06507813   63.20143746   89.62884880
H     47.44461339   62.34342564   89.89887822
H     48.89760929   62.83521081   89.02601098
C     48.61707444   63.84494733   90.89558288
H     47.80636612   64.19292296   91.53229094
H     49.24421779   64.69853388   90.64648058
H     49.21496097   63.13232793   91.45913276
C     44.08234146   65.83563382   76.62208416
H     43.78847157   66.85589761   76.88097230
H     43.17240507   65.23898110   76.55257513
C     44.99315595   65.28161267   77.71500151
H     45.85247265   65.94738850   77.82330362
H     45.36120288   64.30034683   77.41411804
C     44.26509586   65.17788522   79.05507831
H     43.68672054   66.09252235   79.21198310
H     43.56310691   64.34276563   79.02336393
C     45.21153541   65.00536458   80.24272730
H     45.86027694   65.88303698   80.30752392
H     44.61396416   64.97261269   81.15775354
C     46.07703055   63.74892576   80.16865013
H     45.44028997   62.87538596   80.01353638
H     46.75384789   63.83114413   79.31876352
C     46.88368862   63.56785758   81.45244506
H     46.18395427   63.46931138   82.28723197
H     47.47685308   64.46629816   81.63050330
C     47.79663927   62.34072748   81.44662985
H     47.19091573   61.45686391   81.23175010
H     48.21538900   62.21906441   82.44938791
C     48.95062190   62.39759437   80.44329358
H     48.55741590   62.53086045   79.43395366
H     49.46685559   61.43659428   80.46582838
C     49.95335731   63.51266233   80.73995817
H     49.45526264   64.47433936   80.60423504
H     50.26384100   63.45017022   81.78556696
C     51.19338304   63.46596858   79.83441700
H     50.95560162   62.91675932   78.92076154
H     51.45814389   64.48400223   79.53776219
C     52.42735486   62.84214001   80.48973363
H     52.66448245   63.39436452   81.40283774
H     53.27468689   62.96157994   79.80843617
C     52.27277574   61.36085466   80.82528624
H     51.48386447   61.24036817   81.56716290
H     51.98115171   60.81633552   79.92384027
C     53.57367614   60.77140471   81.36783354
H     54.37082262   60.95628810   80.64261586
H     53.84595912   61.28787543   82.29173660
C     53.49611158   59.26749003   81.63421700
H     54.50112502   58.90253963   81.86198419
H     53.15940657   58.75834952   80.72790504
C     52.57152127   58.89952614   82.79314005
H     51.54571397   59.18187299   82.55154818
H     52.87060014   59.45951280   83.68240985
C     52.61863475   57.40626234   83.09584400
H     53.62744293   57.10355690   83.36884646
H     51.95186682   57.16119373   83.91919578
H     52.31428035   56.83169834   82.22372427
C     34.86037367   81.43476916   65.58755398
C     36.30127258   81.68049687   65.22247767
H     36.79555503   80.75292746   64.94347852
H     36.36488456   82.39811970   64.40833790
H     36.82817158   82.09185154   66.08519710
N     33.37510817   80.28962340   67.21724067
H     33.53442819   80.95491557   67.96630671
H     32.64750071   80.69140052   66.63023703
C     31.10430012   67.94063775   62.68812298
C     30.56475093   67.83222317   61.29419965
H     30.37596711   66.79294396   61.03607538
H     29.62990303   68.38992645   61.20816242
H     31.26665021   68.26399427   60.58278368
N     31.34531717   69.61049875   64.51197348
H     30.35710583   69.79116556   64.63635959
H     31.59067600   68.80653068   65.08179718
C     30.79039025   68.94478136   71.61258910
C     30.33859505   70.36046011   71.84829260
H     29.38489988   70.37220014   72.37884861
H     31.06948765   70.88645306   72.45836557
H     30.20585218   70.89119703   70.90659028
N     28.66296206   68.43265694   70.34348772
H     28.16049886   68.31890858   71.21665961
H     28.52827182   69.38993538   70.03744551
N     32.27542337   67.04197730   74.77338830
H     31.95301827   67.63393606   74.00998236
H     31.47184984   66.56963246   75.16846679
C     38.77707432   69.38278163   77.50092867
C     39.20041990   70.42061924   76.49225124
H     39.45143171   69.97273993   75.53471427
H     38.39336009   71.14088448   76.34422060
H     40.06406791   70.97380773   76.86758748
C     42.21573118   68.93739975   67.11325536
C     42.91412365   68.86734932   65.78313353
H     43.97852039   68.72232635   65.92502844
H     42.48176645   68.07909594   65.17075390
H     42.75635360   69.81472227   65.26137414
N     44.21515028   69.96834433   68.06130790
H     43.83751233   70.85871471   67.74438752
H     44.67490772   70.17004728   68.94543594
 
